src/test/resources/loadflowreferences/loadflow_microgrid-t4-assembledNB_basic.xiidm
<?xml version="1.0" encoding="UTF-8"?>
<iidm:network xmlns:iidm="http://www.powsybl.org/schema/iidm/1_9" xmlns:clbn="http://www.powsybl.org/schema/iidm/ext/cgmes_line_boundary_node/1_0" xmlns:ctc="http://www.powsybl.org/schema/iidm/ext/cgmes_tap_changers/1_0" xmlns:crc="http://www.powsybl.org/schema/iidm/ext/coordinated_reactive_control/1_0" xmlns:vprpc="http://www.powsybl.org/schema/iidm/ext/voltage_per_reactive_power_control/1_0" xmlns:slt="http://www.powsybl.org/schema/iidm/ext/slack_terminal/1_5" xmlns:csshm="http://www.powsybl.org/schema/iidm/ext/cgmes_ssh_metadata/1_0" xmlns:bv="http://www.powsybl.org/schema/iidm/ext/base_voltage_mapping/1_0" xmlns:csm="http://www.powsybl.org/schema/iidm/ext/cgmes_sv_metadata/1_0" xmlns:cc="http://www.powsybl.org/schema/iidm/ext/cim_characteristics/1_0" id="urn:uuid:96adadbe-902b-4cd6-9fc8-01a56ecbee79" caseDate="2017-10-02T09:30:00.000Z" forecastDistance="1546130" sourceFormat="CGMES" minimumValidationLevel="STEADY_STATE_HYPOTHESIS">
    <iidm:property name="CGMES.EQ_ID" value="urn:uuid:19d9a263-529d-4f6c-8221-3a8a45de347b"/>
    <iidm:property name="CGMES.SSH_ID" value="urn:uuid:75271ec4-af11-4a87-8137-d6d2b43b594d"/>
    <iidm:property name="CGMES.TP_ID#0" value="urn:uuid:cb9dee24-b0c9-436d-a2f0-5c09bf095148"/>
    <iidm:property name="CGMES.EQ_BD_ID" value="urn:uuid:2399cbd0-9a39-11e0-aa80-0800200c9a66"/>
    <iidm:property name="CGMES.SSH_ID#0" value="urn:uuid:d6ed5b77-3bd8-4c9a-8b24-79ae8a3e933d"/>
    <iidm:property name="CGMESModelDetail" value="node-breaker"/>
    <iidm:property name="CGMES.TP_BD_ID" value="urn:uuid:2399cbd1-9a39-11e0-aa80-0800200c9a66"/>
    <iidm:property name="CGMES.TP_ID" value="urn:uuid:806f9f1b-ff69-4fb5-80f9-a8f393d31ebb"/>
    <iidm:substation id="87f7002b-056f-4a6a-a872-1744eea757e3" name="Anvers" country="BE" geographicalTags="ELIA-Anvers">
        <iidm:property name="CGMES.regionName" value="BE"/>
        <iidm:property name="CGMES.subRegionId" value="c1d5c0378f8011e08e4d00247eb1f55e"/>
        <iidm:property name="CGMES.regionId" value="c1d5bfc68f8011e08e4d00247eb1f55e"/>
        <iidm:voltageLevel id="69ef0dbd-da79-4eef-a02f-690cb8a28361" name="225.0" nominalV="225.0" lowVoltageLimit="202.5" highVoltageLimit="247.5" topologyKind="NODE_BREAKER">
            <iidm:alias type="MergedVoltageLevel1">d0486169-2205-40b2-895e-b672ecb9e5fc</iidm:alias>
            <iidm:nodeBreakerTopology>
                <iidm:busbarSection id="ef45b632-3028-4afe-bc4c-a4fa323d83fe" name="BE-Busbar_2" node="6">
                    <iidm:alias type="CGMES.Terminal1">800ada75-8c8c-4568-aec5-20f799e45f3c</iidm:alias>
                </iidm:busbarSection>
                <iidm:busbarSection id="8da0ff82-2f23-4231-ac9b-28b9c9141432" name="N1230992411" node="7">
                    <iidm:alias type="CGMES.Terminal1">3c6d83a3-b5f9-41a2-a3d9-cf15d903ed0a</iidm:alias>
                </iidm:busbarSection>
                <iidm:busbarSection id="d6986ea6-fadc-4113-806a-a8f95f62c216" name="N1230992414" node="8">
                    <iidm:alias type="CGMES.Terminal1">ad794c0e-b9ec-420b-ada1-97680e3dde05</iidm:alias>
                </iidm:busbarSection>
                <iidm:switch id="925a3a38-cd26-4f89-8891-c5bc8494e1ae" name="CIRCB-1230991526" kind="BREAKER" retained="false" open="false" node1="11" node2="12">
                    <iidm:alias type="CGMES.Terminal2">e1e6f751-259f-4182-b4e1-12eba54a54ce</iidm:alias>
                    <iidm:alias type="CGMES.Terminal1">381fc1a6-63f7-4728-bb84-d4d7fe4f8794</iidm:alias>
                </iidm:switch>
                <iidm:switch id="484536e9-762a-49a3-9970-d60b9fae03fe" name="CIRCB-1230991544" kind="BREAKER" retained="false" open="false" node1="13" node2="14">
                    <iidm:alias type="CGMES.Terminal2">678a3049-afc0-432f-8f53-b30aa71907b2</iidm:alias>
                    <iidm:alias type="CGMES.Terminal1">310c303a-b0ed-4e42-9854-628f34c53d2b</iidm:alias>
                </iidm:switch>
                <iidm:switch id="fd136c65-d001-41a1-adc7-c5430b5c5e72" name="CIRCB-1230992399" kind="BREAKER" retained="false" open="false" node1="15" node2="16">
                    <iidm:alias type="CGMES.Terminal1">e57dd4ed-5ea0-4374-9b36-40a294a8e2be</iidm:alias>
                    <iidm:alias type="CGMES.Terminal2">b6e23b90-9c48-4285-ac02-5b68d0c572a6</iidm:alias>
                </iidm:switch>
                <iidm:switch id="0a84038e-1952-4d9d-9909-3b49c364a1ac" name="CIRCB-1230992408" kind="BREAKER" retained="false" open="false" node1="17" node2="18">
                    <iidm:alias type="CGMES.Terminal1">3fa4866b-1714-4be9-afab-3909ae092016</iidm:alias>
                    <iidm:alias type="CGMES.Terminal2">b741ce25-3f99-4aa8-9b03-d9de0ba6e342</iidm:alias>
                </iidm:switch>
                <iidm:internalConnection node1="6" node2="0"/>
                <iidm:internalConnection node1="7" node2="3"/>
                <iidm:internalConnection node1="8" node2="4"/>
                <iidm:internalConnection node1="9" node2="0"/>
                <iidm:internalConnection node1="10" node2="0"/>
                <iidm:internalConnection node1="11" node2="5"/>
                <iidm:internalConnection node1="12" node2="1"/>
                <iidm:internalConnection node1="13" node2="0"/>
                <iidm:internalConnection node1="14" node2="2"/>
                <iidm:internalConnection node1="15" node2="3"/>
                <iidm:internalConnection node1="16" node2="0"/>
                <iidm:internalConnection node1="17" node2="4"/>
                <iidm:internalConnection node1="18" node2="0"/>
                <iidm:internalConnection node1="19" node2="3"/>
                <iidm:internalConnection node1="20" node2="4"/>
                <iidm:internalConnection node1="21" node2="0"/>
                <iidm:internalConnection node1="22" node2="5"/>
                <iidm:internalConnection node1="23" node2="1"/>
                <iidm:internalConnection node1="24" node2="2"/>
                <iidm:bus v="229.5" angle="-16.07123995242197" nodes="0,2,3,4,6,7,8,9,10,13,14,15,16,17,18,19,20,21,24"/>
                <iidm:bus v="234.14297426075925" angle="-19.474443532542583" nodes="1,5,11,12,22,23"/>
            </iidm:nodeBreakerTopology>
            <iidm:load id="b1480a00-b427-4001-a26c-51954d2bb7e9" name="L-1230804819" loadType="UNDEFINED" p0="1.0" q0="0.0" node="9" p="1.0" q="0.0">
                <iidm:alias type="CGMES.Terminal1">b9376bea-c75d-49f3-94ca-6a71fa0086a5</iidm:alias>
            </iidm:load>
            <iidm:staticVarCompensator id="3c69652c-ff14-4550-9a87-b6fdaccbb5f4" name="SVC-1230797516" bMin="-1.9753086419753085E-4" bMax="1.9753086419753085E-4" voltageSetpoint="229.5" regulationMode="VOLTAGE" node="10" p="0.0" q="-84.89058569438639">
                <iidm:alias type="CGMES.Terminal1">67bb74f1-8620-4a32-9d7d-a44092d11d22</iidm:alias>
                <iidm:property name="CGMES.RegulatingControl" value="caf65447-3cfb-48d7-aaaa-cd9af3d34261"/>
            </iidm:staticVarCompensator>
        </iidm:voltageLevel>
    </iidm:substation>
    <iidm:substation id="37e14a0f-5e34-4647-a062-8bfd9305fa9d" name="PP_Brussels" country="BE" geographicalTags="ELIA-Brussels">
        <iidm:property name="CGMES.regionName" value="BE"/>
        <iidm:property name="CGMES.subRegionId" value="c1d5bfc88f8011e08e4d00247eb1f55e"/>
        <iidm:property name="CGMES.regionId" value="c1d5bfc68f8011e08e4d00247eb1f55e"/>
        <iidm:voltageLevel id="4ba71b59-ee2f-450b-9f7d-cc2f1cc5e386" name="10.5" nominalV="10.5" lowVoltageLimit="9.45" highVoltageLimit="11.55" topologyKind="NODE_BREAKER">
            <iidm:nodeBreakerTopology>
                <iidm:busbarSection id="fd649fe1-bdf5-4062-98ea-bbb66f50402d" name="BE-Busbar_4" node="1">
                    <iidm:alias type="CGMES.Terminal1">65b8c937-9b25-4b9e-addf-602dbc1337f9</iidm:alias>
                </iidm:busbarSection>
                <iidm:internalConnection node1="1" node2="0"/>
                <iidm:internalConnection node1="2" node2="0"/>
                <iidm:internalConnection node1="3" node2="0"/>
                <iidm:bus v="10.21787742882276" angle="-17.47439276342951" nodes="0,1,2,3"/>
            </iidm:nodeBreakerTopology>
            <iidm:generator id="3a3b27be-b18b-4385-b557-6735d733baf0" name="BE-G1" energySource="OTHER" minP="50.0" maxP="200.0" ratedS="300.0" voltageRegulatorOn="true" targetP="90.0" targetV="115.5" targetQ="100.256" node="2" p="-90.0" q="102.86055059631882">
                <iidm:alias type="CGMES.Terminal1">beffa353-7d10-421d-9c08-036b744b1cee</iidm:alias>
                <iidm:property name="CGMES.normalPF" value="0.0"/>
                <iidm:property name="CGMES.GeneratingUnit" value="18993b11-2966-4bce-bab9-d86103f83b53"/>
                <iidm:property name="CGMES.RegulatingControl" value="6ba406ce-78cf-4485-9b01-a34e584f1a8d"/>
                <iidm:regulatingTerminal id="364c9ca2-0d1d-4363-8f46-e586f8f66a8c"/>
                <iidm:reactiveCapabilityCurve>
                    <iidm:point p="-100.0" minQ="-200.0" maxQ="200.0"/>
                    <iidm:point p="0.0" minQ="-300.0" maxQ="300.0"/>
                    <iidm:point p="100.0" minQ="-200.0" maxQ="200.0"/>
                </iidm:reactiveCapabilityCurve>
            </iidm:generator>
        </iidm:voltageLevel>
        <iidm:voltageLevel id="8bbd7e74-ae20-4dce-8780-c20f8e18c2e0" name="110.0" nominalV="110.0" lowVoltageLimit="99.0" highVoltageLimit="121.0" topologyKind="NODE_BREAKER">
            <iidm:nodeBreakerTopology>
                <iidm:busbarSection id="364c9ca2-0d1d-4363-8f46-e586f8f66a8c" name="BE-Busbar_6" node="4">
                    <iidm:alias type="CGMES.Terminal1">a1b46f53-86f1-497e-bf57-c3b6268bcd6c</iidm:alias>
                </iidm:busbarSection>
                <iidm:switch id="38dfcc80-600f-44e2-8f71-fb595b4f00ac" name="BE_Breaker_1" kind="BREAKER" retained="false" open="false" node1="7" node2="8">
                    <iidm:alias type="CGMES.Terminal1">9f5dbaf3-e384-4e86-9d49-f43c30b4e354</iidm:alias>
                    <iidm:alias type="CGMES.Terminal2">95f1d705-35fa-4102-ba5b-43dfe7a0e0cc</iidm:alias>
                </iidm:switch>
                <iidm:switch id="2922c1dd-4113-466e-8cad-002572f3f557" name="BE_Breaker_3" kind="BREAKER" retained="false" open="false" node1="9" node2="10">
                    <iidm:alias type="CGMES.Terminal1">4bbaf84d-2437-44e1-a56c-e79723370e77</iidm:alias>
                    <iidm:alias type="CGMES.Terminal2">b8bca219-a924-434f-8163-50aae6d486a7</iidm:alias>
                </iidm:switch>
                <iidm:switch id="6e86cd52-4594-435e-92ce-6dc673288ab4" name="BE_Breaker_5" kind="BREAKER" retained="false" open="false" node1="11" node2="12">
                    <iidm:alias type="CGMES.Terminal1">5245aa5c-9600-4632-95db-e981a19ed857</iidm:alias>
                    <iidm:alias type="CGMES.Terminal2">61562178-c201-43c7-b56d-a300ab07c723</iidm:alias>
                </iidm:switch>
                <iidm:internalConnection node1="4" node2="0"/>
                <iidm:internalConnection node1="5" node2="0"/>
                <iidm:internalConnection node1="6" node2="0"/>
                <iidm:internalConnection node1="7" node2="0"/>
                <iidm:internalConnection node1="8" node2="1"/>
                <iidm:internalConnection node1="9" node2="0"/>
                <iidm:internalConnection node1="10" node2="2"/>
                <iidm:internalConnection node1="11" node2="3"/>
                <iidm:internalConnection node1="12" node2="0"/>
                <iidm:internalConnection node1="13" node2="3"/>
                <iidm:internalConnection node1="14" node2="2"/>
                <iidm:internalConnection node1="15" node2="1"/>
                <iidm:bus v="115.5" angle="-19.89492259596545" nodes="0,1,2,3,4,5,6,7,8,9,10,11,12,13,14,15"/>
            </iidm:nodeBreakerTopology>
            <iidm:load id="cb459405-cc14-4215-a45c-416789205904" name="BE-Load_1" loadType="UNDEFINED" p0="200.0" q0="90.0" node="5" p="200.0" q="90.0">
                <iidm:alias type="CGMES.Terminal1">cbdf1842-74ed-4fce-a5d4-0296c82cbc92</iidm:alias>
            </iidm:load>
            <iidm:shunt id="d771118f-36e9-4115-a128-cc3d9ce3e3da" name="BE_S1" sectionCount="1" voltageRegulatorOn="false" targetV="110.0" targetDeadband="0.5" node="6" p="0.0" q="-330.74481825">
                <iidm:alias type="CGMES.Terminal1">d5e2e58e-ccf6-47d9-b3bb-3088eb7a9b6c</iidm:alias>
                <iidm:property name="CGMES.RegulatingControl" value="4d50f86d-0d12-4ca3-9430-56bb05f9eee6"/>
                <iidm:shuntLinearModel bPerSection="0.024793" gPerSection="0.0" maximumSectionCount="1"/>
            </iidm:shunt>
        </iidm:voltageLevel>
        <iidm:voltageLevel id="929ba893-c9dc-44d7-b1fd-30834bd3ab85" name="21.0" nominalV="21.0" lowVoltageLimit="18.9" highVoltageLimit="23.1" topologyKind="NODE_BREAKER">
            <iidm:nodeBreakerTopology>
                <iidm:switch id="969470b9-e74c-40d2-b3f7-bcfd88400fd1" name="BE_Breaker_10" kind="BREAKER" retained="false" open="false" node1="3" node2="4">
                    <iidm:alias type="CGMES.Terminal1">f392d0d3-47cb-4ec1-925f-b3762d4a787c</iidm:alias>
                    <iidm:alias type="CGMES.Terminal2">b3bf6cbd-abe8-42b6-95f4-20682475b484</iidm:alias>
                </iidm:switch>
                <iidm:internalConnection node1="2" node2="0"/>
                <iidm:internalConnection node1="3" node2="0"/>
                <iidm:internalConnection node1="4" node2="1"/>
                <iidm:internalConnection node1="5" node2="1"/>
                <iidm:bus v="21.987" angle="-19.835130249349845" nodes="0,1,2,3,4,5"/>
            </iidm:nodeBreakerTopology>
            <iidm:generator id="550ebe0d-f2b2-48c1-991f-cebea43a21aa" name="BE-G2" energySource="OTHER" minP="50.0" maxP="200.0" ratedS="300.0" voltageRegulatorOn="true" targetP="118.0" targetV="21.987" targetQ="18.720301" node="2" p="-118.0" q="-65.47047384101032">
                <iidm:alias type="CGMES.Terminal1">4bb5407b-b4a5-416c-80ad-1a778ada2b9b</iidm:alias>
                <iidm:property name="CGMES.normalPF" value="0.0"/>
                <iidm:property name="CGMES.GeneratingUnit" value="5b7a4d43-09ec-4033-882d-64a76d557631"/>
                <iidm:property name="CGMES.RegulatingControl" value="84bf5be8-eb59-4555-b131-fce4d2d7775d"/>
                <iidm:minMaxReactiveLimits minQ="-200.0" maxQ="200.0"/>
            </iidm:generator>
        </iidm:voltageLevel>
        <iidm:voltageLevel id="b10b171b-3bc5-4849-bb1f-61ed9ea1ec7c" name="225.0" nominalV="225.0" lowVoltageLimit="202.5" highVoltageLimit="247.5" topologyKind="NODE_BREAKER">
            <iidm:nodeBreakerTopology>
                <iidm:busbarSection id="5caf27ed-d2f8-458a-834a-6b3193a982e6" name="BE-Busbar_3" node="4">
                    <iidm:alias type="CGMES.Terminal1">62fc0a4e-00aa-4bf7-b1a0-3a5b2c0b5492</iidm:alias>
                </iidm:busbarSection>
                <iidm:busbarSection id="63f25be7-7592-4cf1-8401-5772046ef2ae" name="N1230992288" node="5">
                    <iidm:alias type="CGMES.Terminal1">8f1c492f-a7cc-4160-9a14-54f1743e4850</iidm:alias>
                </iidm:busbarSection>
                <iidm:busbarSection id="c8ce5e08-5ee3-42d9-aa44-5792db252d9f" name="N1230992291" node="6">
                    <iidm:alias type="CGMES.Terminal1">302fe23a-f64d-41bd-8a81-78130433916d</iidm:alias>
                </iidm:busbarSection>
                <iidm:switch id="a603d890-5d9d-42ef-98d0-acf47d121c0e" name="BE_Breaker_4" kind="BREAKER" retained="false" open="false" node1="8" node2="9">
                    <iidm:alias type="CGMES.Terminal2">68d47f87-1a1f-4c63-80ca-d3becb4a47f9</iidm:alias>
                    <iidm:alias type="CGMES.Terminal1">529a048e-7681-4e59-aba1-f7474a562cba</iidm:alias>
                </iidm:switch>
                <iidm:switch id="3b394dab-ab47-4022-98be-8123c6dfe7d4" name="CIRCB-1230992276" kind="BREAKER" retained="false" open="false" node1="10" node2="11">
                    <iidm:alias type="CGMES.Terminal1">756dff85-b2c8-4a06-9a4c-4dde854e668b</iidm:alias>
                    <iidm:alias type="CGMES.Terminal2">3f8b7c82-ca57-401a-9e2d-b719f8c83030</iidm:alias>
                </iidm:switch>
                <iidm:switch id="ddc148fc-3abd-459d-aec1-396283e0def6" name="CIRCB-1230992285" kind="BREAKER" retained="false" open="false" node1="12" node2="13">
                    <iidm:alias type="CGMES.Terminal1">b501caa7-949f-49c6-b4d4-f50ef3625ede</iidm:alias>
                    <iidm:alias type="CGMES.Terminal2">fd2867a9-0c57-4cf2-acfb-439c4039b06b</iidm:alias>
                </iidm:switch>
                <iidm:internalConnection node1="4" node2="0"/>
                <iidm:internalConnection node1="5" node2="2"/>
                <iidm:internalConnection node1="6" node2="3"/>
                <iidm:internalConnection node1="7" node2="0"/>
                <iidm:internalConnection node1="8" node2="1"/>
                <iidm:internalConnection node1="9" node2="0"/>
                <iidm:internalConnection node1="10" node2="0"/>
                <iidm:internalConnection node1="11" node2="2"/>
                <iidm:internalConnection node1="12" node2="0"/>
                <iidm:internalConnection node1="13" node2="3"/>
                <iidm:internalConnection node1="14" node2="2"/>
                <iidm:internalConnection node1="15" node2="3"/>
                <iidm:internalConnection node1="16" node2="0"/>
                <iidm:internalConnection node1="17" node2="1"/>
                <iidm:bus v="225.25588272964146" angle="-20.520129119962107" nodes="0,1,2,3,4,5,6,7,8,9,10,11,12,13,14,15,16,17"/>
            </iidm:nodeBreakerTopology>
            <iidm:load id="1c6beed6-1acf-42e7-ba55-0cc9f04bddd8" name="BE-Load_2" loadType="UNDEFINED" p0="200.0" q0="50.0" node="7" p="200.0" q="50.0">
                <iidm:alias type="CGMES.Terminal1">a036b765-1669-4f64-acd3-1e8fbd513312</iidm:alias>
            </iidm:load>
        </iidm:voltageLevel>
        <iidm:voltageLevel id="469df5f7-058f-4451-a998-57a48e8a56fe" name="380.0" nominalV="380.0" lowVoltageLimit="342.0" highVoltageLimit="418.0" topologyKind="NODE_BREAKER">
            <iidm:nodeBreakerTopology>
                <iidm:busbarSection id="64901aec-5a8a-4bcb-8ca7-a3ddbfcd0e6c" name="BE-Busbar_1" node="5">
                    <iidm:alias type="CGMES.Terminal1">fa9e0f4d-8a2f-45e1-9e36-3611600d1c94</iidm:alias>
                </iidm:busbarSection>
                <iidm:switch id="96c2b5c8-8e28-4b08-96d2-ca9b09cdbd83" name="BE_Breaker_12" kind="BREAKER" retained="false" open="false" node1="7" node2="8">
                    <iidm:alias type="CGMES.Terminal1">5c206db8-ef8c-4e53-b2b9-38b52b194c5a</iidm:alias>
                    <iidm:alias type="CGMES.Terminal2">a45d705f-46f6-4bde-8790-11a762da8c01</iidm:alias>
                </iidm:switch>
                <iidm:switch id="6b564930-b5e2-49d3-9d06-e1de28d6fd65" name="BE_Breaker_2" kind="BREAKER" retained="false" open="false" node1="9" node2="10">
                    <iidm:alias type="CGMES.Terminal1">345d8528-1a7e-4245-92d6-15db7a7e3c86</iidm:alias>
                    <iidm:alias type="CGMES.Terminal2">907dbcfe-2037-4f84-97f1-6e59f782168e</iidm:alias>
                </iidm:switch>
                <iidm:switch id="14d55344-c118-4f54-a430-72f16d12bf7b" name="CIRCB-1230991718" kind="BREAKER" retained="false" open="false" node1="11" node2="12">
                    <iidm:alias type="CGMES.Terminal2">6811721b-252c-45fd-8474-6db1e7d5739e</iidm:alias>
                    <iidm:alias type="CGMES.Terminal1">042688a6-140f-473c-98f9-94a3cfdc00d3</iidm:alias>
                </iidm:switch>
                <iidm:switch id="0e8cd279-ad5d-485a-b3a9-093ae8714b72" name="CIRCB-1230991736" kind="BREAKER" retained="false" open="false" node1="13" node2="14">
                    <iidm:alias type="CGMES.Terminal1">0cca0f16-c476-4a99-b289-d660ff57b891</iidm:alias>
                    <iidm:alias type="CGMES.Terminal2">36fedfd8-280b-4ee4-b58a-cd2063e5d706</iidm:alias>
                </iidm:switch>
                <iidm:internalConnection node1="5" node2="0"/>
                <iidm:internalConnection node1="6" node2="0"/>
                <iidm:internalConnection node1="7" node2="1"/>
                <iidm:internalConnection node1="8" node2="0"/>
                <iidm:internalConnection node1="9" node2="2"/>
                <iidm:internalConnection node1="10" node2="0"/>
                <iidm:internalConnection node1="11" node2="0"/>
                <iidm:internalConnection node1="12" node2="3"/>
                <iidm:internalConnection node1="13" node2="0"/>
                <iidm:internalConnection node1="14" node2="4"/>
                <iidm:internalConnection node1="15" node2="1"/>
                <iidm:internalConnection node1="16" node2="2"/>
                <iidm:internalConnection node1="17" node2="3"/>
                <iidm:internalConnection node1="18" node2="0"/>
                <iidm:internalConnection node1="19" node2="4"/>
                <iidm:bus v="415.1696514739856" angle="-21.283265701529903" nodes="0,1,2,3,4,5,6,7,8,9,10,11,12,13,14,15,16,17,18,19"/>
            </iidm:nodeBreakerTopology>
            <iidm:shunt id="002b0a40-3957-46db-b84a-30420083558f" name="BE_S2" sectionCount="1" voltageRegulatorOn="false" targetV="380.0" targetDeadband="0.5" node="6" p="1.2065608765352147" q="-59.63858046874062">
                <iidm:alias type="CGMES.Terminal1">22af3121-1a66-4546-bd80-4371f417c644</iidm:alias>
                <iidm:property name="CGMES.RegulatingControl" value="bee06911-8d5c-44c4-b2d2-5c22a461b5a0"/>
                <iidm:shuntNonLinearModel>
                    <iidm:section b="3.46E-4" g="7.0E-6"/>
                    <iidm:section b="5.19E-4" g="9.0E-6"/>
                    <iidm:section b="6.580000000000001E-4" g="1.0E-5"/>
                    <iidm:section b="7.27E-4" g="1.06E-5"/>
                    <iidm:section b="7.620000000000001E-4" g="1.09E-5"/>
                </iidm:shuntNonLinearModel>
            </iidm:shunt>
        </iidm:voltageLevel>
        <iidm:twoWindingsTransformer id="e482b89a-fa84-4ea9-8e70-a83d44790957" name="BE-TR2_3" r="9.481464576284766E-4" x="0.052911509061024486" g="0.0019138280377471303" b="-0.00917006295066167" ratedU1="110.34375" ratedU2="10.5" node1="13" voltageLevelId1="8bbd7e74-ae20-4dce-8780-c20f8e18c2e0" node2="3" voltageLevelId2="4ba71b59-ee2f-450b-9f7d-cc2f1cc5e386" p1="-89.60634372871903" q1="112.98620571139443" p2="89.99912073698704" q2="-102.86055059631882">
            <iidm:alias type="CGMES.TransformerEnd2">35651e25-a77a-46a1-92f4-443d6acce90e</iidm:alias>
            <iidm:alias type="CGMES.RatioTapChanger2">83cc66dd-8d93-4a2c-8103-f1f5a9cf7e2e</iidm:alias>
            <iidm:alias type="CGMES.TransformerEnd1">f58281c5-862a-465e-97ec-d809be6e24ab</iidm:alias>
            <iidm:alias type="CGMES.Terminal1">ca7974cf-b25e-4898-9221-7154233e5eb2</iidm:alias>
            <iidm:alias type="CGMES.Terminal2">1182d878-2eaa-4eec-91be-ce7b2b1e7f9a</iidm:alias>
            <iidm:ratioTapChanger lowTapPosition="1" tapPosition="14" targetDeadband="0.5" loadTapChangingCapabilities="true" regulating="true" targetV="10.815">
                <iidm:terminalRef id="e482b89a-fa84-4ea9-8e70-a83d44790957" side="TWO"/>
                <iidm:step r="-23.961600000000004" x="-23.961600000000004" g="31.512498947900024" b="31.512498947900024" rho="0.872"/>
                <iidm:step r="-22.560000000000002" x="-22.560000000000002" g="29.132231404958688" b="29.132231404958688" rho="0.8799999999999999"/>
                <iidm:step r="-21.145599999999998" x="-21.145599999999998" g="26.816005194383564" b="26.816005194383564" rho="0.888"/>
                <iidm:step r="-19.718399999999992" x="-19.718399999999992" g="24.56154336734693" b="24.56154336734693" rho="0.896"/>
                <iidm:step r="-18.278399999999994" x="-18.278399999999994" g="22.366669277155605" b="22.366669277155605" rho="0.904"/>
                <iidm:step r="-16.825599999999994" x="-16.825599999999994" g="20.22930132348415" b="20.22930132348415" rho="0.9120000000000001"/>
                <iidm:step r="-15.359999999999996" x="-15.359999999999996" g="18.14744801512287" b="18.14744801512287" rho="0.92"/>
                <iidm:step r="-13.881600000000017" x="-13.881600000000017" g="16.119203329369824" b="16.119203329369824" rho="0.9279999999999999"/>
                <iidm:step r="-12.390400000000012" x="-12.390400000000012" g="14.142742347870563" b="14.142742347870563" rho="0.936"/>
                <iidm:step r="-10.886400000000007" x="-10.886400000000007" g="12.216317150244183" b="12.216317150244183" rho="0.944"/>
                <iidm:step r="-9.36960000000001" x="-9.36960000000001" g="10.338252948238136" b="10.338252948238136" rho="0.952"/>
                <iidm:step r="-7.8400000000000025" x="-7.8400000000000025" g="8.506944444444443" b="8.506944444444443" rho="0.96"/>
                <iidm:step r="-6.297600000000003" x="-6.297600000000003" g="6.720852400792299" b="6.720852400792299" rho="0.9679999999999999"/>
                <iidm:step r="-4.742400000000002" x="-4.742400000000002" g="4.978500403117447" b="4.978500403117447" rho="0.9760000000000001"/>
                <iidm:step r="-3.1743999999999994" x="-3.1743999999999994" g="3.278471809108341" b="3.278471809108341" rho="0.9839999999999999"/>
                <iidm:step r="-1.5936000000000061" x="-1.5936000000000061" g="1.6194068678460072" b="1.6194068678460072" rho="0.992"/>
                <iidm:step r="0.0" x="0.0" g="0.0" b="0.0" rho="1.0"/>
                <iidm:step r="1.6064000000000078" x="1.6064000000000078" g="-1.5810027714789676" b="-1.5810027714789676" rho="1.008"/>
                <iidm:step r="3.2256000000000062" x="3.2256000000000062" g="-3.1248062496124995" b="-3.1248062496124995" rho="1.016"/>
                <iidm:step r="4.857599999999995" x="4.857599999999995" g="-4.632568359375" b="-4.632568359375" rho="1.024"/>
                <iidm:step r="6.502399999999997" x="6.502399999999997" g="-6.105402319572139" b="-6.105402319572139" rho="1.032"/>
                <iidm:step r="8.16000000000001" x="8.16000000000001" g="-7.544378698224863" b="-7.544378698224863" rho="1.04"/>
                <iidm:step r="9.830400000000017" x="9.830400000000017" g="-8.950527358545557" b="-8.950527358545557" rho="1.048"/>
                <iidm:step r="11.513600000000013" x="11.513600000000013" g="-10.324839302112043" b="-10.324839302112043" rho="1.056"/>
                <iidm:step r="13.209600000000021" x="13.209600000000021" g="-11.66826841539942" b="-11.66826841539942" rho="1.064"/>
                <iidm:step r="14.91840000000002" x="14.91840000000002" g="-12.981733125417705" b="-12.981733125417705" rho="1.072"/>
                <iidm:step r="16.64000000000001" x="16.64000000000001" g="-14.266117969821678" b="-14.266117969821678" rho="1.08"/>
                <iidm:step r="18.374400000000012" x="18.374400000000012" g="-15.5222750865052" b="-15.5222750865052" rho="1.088"/>
                <iidm:step r="20.12160000000003" x="20.12160000000003" g="-16.751025627364292" b="-16.751025627364292" rho="1.096"/>
                <iidm:step r="21.881600000000013" x="21.881600000000013" g="-17.953161100609126" b="-17.953161100609126" rho="1.104"/>
                <iidm:step r="23.65440000000003" x="23.65440000000003" g="-19.129444645722295" b="-19.129444645722295" rho="1.112"/>
                <iidm:step r="25.44000000000002" x="25.44000000000002" g="-20.280612244897966" b="-20.280612244897966" rho="1.12"/>
                <iidm:step r="27.23840000000002" x="27.23840000000002" g="-21.407373874553603" b="-21.407373874553603" rho="1.1280000000000001"/>
            </iidm:ratioTapChanger>
            <iidm:currentLimits1 permanentLimit="1308.1">
                <iidm:temporaryLimit name="a5d3cd27-798c-4910-9729-6fc745346601" acceptableDuration="20" value="1408.1"/>
                <iidm:temporaryLimit name="7059bdb7-fa2d-4061-aea7-a88760835e2f" acceptableDuration="10" value="1508.1"/>
            </iidm:currentLimits1>
            <iidm:currentLimits2 permanentLimit="13746.4">
                <iidm:temporaryLimit name="3674d58e-946d-4901-8084-eb21afe1565a" acceptableDuration="20" value="14746.4"/>
                <iidm:temporaryLimit name="a1cfb7e6-ed0d-4369-b555-007826ba82fb" acceptableDuration="10" value="15746.4"/>
            </iidm:currentLimits2>
        </iidm:twoWindingsTransformer>
        <iidm:twoWindingsTransformer id="b94318f6-6d24-4f56-96b9-df2531ad6543" name="BE-TR2_2" r="0.2057" x="2.78472075" g="0.0" b="0.0" ratedU1="220.0" ratedU2="110.0" node1="17" voltageLevelId1="b10b171b-3bc5-4849-bb1f-61ed9ea1ec7c" node2="14" voltageLevelId2="8bbd7e74-ae20-4dce-8780-c20f8e18c2e0" p1="-33.2762657115123" q1="69.59304679142937" p2="33.365684927005184" q2="-68.45312404652333">
            <iidm:alias type="CGMES.Terminal1">4c19ace6-c825-4c5b-87d9-031e6e6a3379</iidm:alias>
            <iidm:alias type="CGMES.TransformerEnd2">ba56158e-0c51-448d-999b-44cb0b3cebf5</iidm:alias>
            <iidm:alias type="CGMES.PhaseTapChanger1">36b83adb-3d45-4693-8967-96627b5f9ec9</iidm:alias>
            <iidm:alias type="CGMES.TransformerEnd1">3c59d1b0-1ee9-4ca3-9086-4fe102b51b21</iidm:alias>
            <iidm:alias type="CGMES.Terminal2">ab7ece75-d726-48c8-a924-b0a9325e6d51</iidm:alias>
            <iidm:phaseTapChanger lowTapPosition="1" tapPosition="10" targetDeadband="0.5" regulationMode="ACTIVE_POWER_CONTROL" regulationValue="0.0" regulating="false">
                <iidm:terminalRef id="b94318f6-6d24-4f56-96b9-df2531ad6543" side="TWO"/>
                <iidm:step r="0.0" x="6.666664871154497" g="0.0" b="0.0" rho="1.1755422434208005" alpha="0.8805727405473578"/>
                <iidm:step r="0.0" x="4.537035815091263" g="0.0" b="0.0" rho="1.1586056669686495" alpha="0.7955563423466072"/>
                <iidm:step r="0.0" x="2.5925918943378696" g="0.0" b="0.0" rho="1.1421477766764319" alpha="0.7129550672892361"/>
                <iidm:step r="0.0" x="0.833333108894314" g="0.0" b="0.0" rho="1.1261486602576298" alpha="0.6326677735935806"/>
                <iidm:step r="0.0" x="-0.7407405412393868" g="0.0" b="0.0" rho="1.1105894893738122" alpha="0.5545988715309792"/>
                <iidm:step r="0.0" x="-2.129629056063233" g="0.0" b="0.0" rho="1.095452447226334" alpha="0.47865794879860163"/>
                <iidm:step r="0.0" x="-3.33333243557724" g="0.0" b="0.0" rho="1.0807206618472625" alpha="0.40475942572887974"/>
                <iidm:step r="0.0" x="-4.351850679781409" g="0.0" b="0.0" rho="1.0663781445755807" alpha="0.3328222376080019"/>
                <iidm:step r="0.0" x="-5.185183788675723" g="0.0" b="0.0" rho="1.0524097332567426" alpha="0.2627695416563462"/>
                <iidm:step r="0.0" x="-5.833331762260182" g="0.0" b="0.0" rho="1.038801039749854" alpha="0.19452844647221934"/>
                <iidm:step r="0.0" x="-6.296294600534804" g="0.0" b="0.0" rho="1.025538401367855" alpha="0.12802976196082178"/>
                <iidm:step r="0.0" x="-6.5740723034995705" g="0.0" b="0.0" rho="1.0126088359126768" alpha="0.06320776796639264"/>
                <iidm:step r="0.0" x="-6.666664871154497" g="0.0" b="0.0" rho="1.0" alpha="-0.0"/>
                <iidm:step r="0.0" x="-6.5740723034995705" g="0.0" b="0.0" rho="0.9877001503973964" alpha="-0.06165294938898634"/>
                <iidm:step r="0.0" x="-6.296294600534804" g="0.0" b="0.0" rho="0.9756981081257208" alpha="-0.12180761491082397"/>
                <iidm:step r="0.0" x="-5.833331762260182" g="0.0" b="0.0" rho="0.9639832250969622" alpha="-0.18051782969166116"/>
                <iidm:step r="0.0" x="-5.185183788675723" g="0.0" b="0.0" rho="0.9525453530827181" alpha="-0.23783488436593375"/>
                <iidm:step r="0.0" x="-4.351850679781409" g="0.0" b="0.0" rho="0.9413748148262341" alpha="-0.29380767508308475"/>
                <iidm:step r="0.0" x="-3.333332435577256" g="0.0" b="0.0" rho="0.9304623771278682" alpha="-0.34848284131739915"/>
                <iidm:step r="0.0" x="-2.129629056063233" g="0.0" b="0.0" rho="0.9197992257490235" alpha="-0.40190489428941484"/>
                <iidm:step r="0.0" x="-0.7407405412393868" g="0.0" b="0.0" rho="0.9093769419933113" alpha="-0.4541163367351001"/>
                <iidm:step r="0.0" x="0.833333108894314" g="0.0" b="0.0" rho="0.8991874808360478" alpha="-0.5051577746938851"/>
                <iidm:step r="0.0" x="2.5925918943378696" g="0.0" b="0.0" rho="0.8892231504843557" alpha="-0.5550680219279268"/>
                <iidm:step r="0.0" x="4.537035815091247" g="0.0" b="0.0" rho="0.8794765932602222" alpha="-0.6038841975319802"/>
                <iidm:step r="0.0" x="6.666664871154497" g="0.0" b="0.0" rho="0.8699407677079993" alpha="-0.651641817245342"/>
            </iidm:phaseTapChanger>
            <iidm:currentLimits1 permanentLimit="1705.8">
                <iidm:temporaryLimit name="9732c968-c1c4-446a-b47b-9038f5a59724" acceptableDuration="20" value="1805.8"/>
                <iidm:temporaryLimit name="d29ef207-67d3-47bb-82ea-9d82074dde55" acceptableDuration="10" value="1905.8"/>
            </iidm:currentLimits1>
            <iidm:currentLimits2 permanentLimit="3411.6">
                <iidm:temporaryLimit name="6236459d-8471-44be-9b66-b271ac407165" acceptableDuration="20" value="3611.6"/>
                <iidm:temporaryLimit name="9b2c1328-381e-4277-9042-94b0085f2b77" acceptableDuration="10" value="3811.6"/>
            </iidm:currentLimits2>
        </iidm:twoWindingsTransformer>
        <iidm:twoWindingsTransformer id="a708c3bc-465d-4fe7-b6ef-6fa6408a62b0" name="BE-TR2_1" r="0.20476920750000005" x="1.097992115" g="0.0" b="0.0" ratedU1="400.0" ratedU2="110.0" node1="16" voltageLevelId1="469df5f7-058f-4451-a998-57a48e8a56fe" node2="15" voltageLevelId2="8bbd7e74-ae20-4dce-8780-c20f8e18c2e0" p1="144.65922986686098" q1="-192.0525320912918" p2="-143.7510862241701" q2="196.2119422739467">
            <iidm:alias type="CGMES.Terminal1">c3774d3f-f48c-4954-a0cf-b4572eb714fd</iidm:alias>
            <iidm:alias type="CGMES.TransformerEnd2">e22f3c30-63f5-47bf-a8c4-fee2483d426c</iidm:alias>
            <iidm:alias type="CGMES.Terminal2">2cd21c77-b8b1-4896-95fb-240f45b9ac89</iidm:alias>
            <iidm:alias type="CGMES.TransformerEnd1">bf76ac9d-0144-48f5-a24a-34ae15a455fb</iidm:alias>
            <iidm:alias type="CGMES.PhaseTapChanger1">63454a73-f439-45bb-951a-e7b193986571</iidm:alias>
            <iidm:phaseTapChanger lowTapPosition="1" tapPosition="10" targetDeadband="35.0" regulationMode="ACTIVE_POWER_CONTROL" regulationValue="-65.0" regulating="true">
                <iidm:terminalRef id="a708c3bc-465d-4fe7-b6ef-6fa6408a62b0" side="TWO"/>
                <iidm:step r="0.0" x="16.666671258381484" g="0.0" b="0.0" rho="1.0" alpha="8.602444609340731"/>
                <iidm:step r="0.0" x="11.342596817607973" g="0.0" b="0.0" rho="1.0" alpha="7.884389030643912"/>
                <iidm:step r="0.0" x="6.481485371684307" g="0.0" b="0.0" rho="1.0" alpha="7.166643396943946"/>
                <iidm:step r="0.0" x="2.0833369206105465" g="0.0" b="0.0" rho="1.0" alpha="6.4491791834097425"/>
                <iidm:step r="0.0" x="-1.8518485356133692" g="0.0" b="0.0" rho="1.0" alpha="5.7319679651977244"/>
                <iidm:step r="0.0" x="-5.324070996987404" g="0.0" b="0.0" rho="1.0" alpha="5.014981407174461"/>
                <iidm:step r="0.0" x="-8.333330463511558" g="0.0" b="0.0" rho="1.0" alpha="4.298191253728038"/>
                <iidm:step r="0.0" x="-10.879626935185854" g="0.0" b="0.0" rho="1.0" alpha="3.5815693186578987"/>
                <iidm:step r="0.0" x="-12.96296041201027" g="0.0" b="0.0" rho="1.0" alpha="2.865087475133015"/>
                <iidm:step r="0.0" x="-14.58333089398483" g="0.0" b="0.0" rho="1.0" alpha="2.1487176457083694"/>
                <iidm:step r="0.0" x="-15.740738381109509" g="0.0" b="0.0" rho="1.0" alpha="1.432431792389882"/>
                <iidm:step r="0.0" x="-16.435182873384306" g="0.0" b="0.0" rho="1.0" alpha="0.7162019067379666"/>
                <iidm:step r="0.0" x="-16.666664370809244" g="0.0" b="0.0" rho="1.0" alpha="-0.0"/>
                <iidm:step r="0.0" x="-16.435182873384306" g="0.0" b="0.0" rho="1.0" alpha="-0.7162019067379666"/>
                <iidm:step r="0.0" x="-15.740738381109509" g="0.0" b="0.0" rho="1.0" alpha="-1.432431792389882"/>
                <iidm:step r="0.0" x="-14.58333089398483" g="0.0" b="0.0" rho="1.0" alpha="-2.1487176457083694"/>
                <iidm:step r="0.0" x="-12.96296041201027" g="0.0" b="0.0" rho="1.0" alpha="-2.865087475133015"/>
                <iidm:step r="0.0" x="-10.879626935185854" g="0.0" b="0.0" rho="1.0" alpha="-3.5815693186578987"/>
                <iidm:step r="0.0" x="-8.333330463511558" g="0.0" b="0.0" rho="1.0" alpha="-4.298191253728038"/>
                <iidm:step r="0.0" x="-5.324070996987404" g="0.0" b="0.0" rho="1.0" alpha="-5.014981407174461"/>
                <iidm:step r="0.0" x="-1.8518485356133692" g="0.0" b="0.0" rho="1.0" alpha="-5.7319679651977244"/>
                <iidm:step r="0.0" x="2.0833369206105465" g="0.0" b="0.0" rho="1.0" alpha="-6.4491791834097425"/>
                <iidm:step r="0.0" x="6.481485371684307" g="0.0" b="0.0" rho="1.0" alpha="-7.166643396943946"/>
                <iidm:step r="0.0" x="11.342596817607973" g="0.0" b="0.0" rho="1.0" alpha="-7.884389030643912"/>
                <iidm:step r="0.0" x="16.666671258381484" g="0.0" b="0.0" rho="1.0" alpha="-8.602444609340731"/>
            </iidm:phaseTapChanger>
            <iidm:currentLimits1 permanentLimit="938.2">
                <iidm:temporaryLimit name="1b0850d6-317b-40a3-aa98-040b64f9350c" acceptableDuration="20" value="958.2"/>
                <iidm:temporaryLimit name="dea05113-ef3e-4161-957d-4602c874839e" acceptableDuration="10" value="998.2"/>
            </iidm:currentLimits1>
            <iidm:currentLimits2 permanentLimit="3411.6">
                <iidm:temporaryLimit name="e1ae19e7-8bb7-42ce-8ae6-24893f16e366" acceptableDuration="20" value="3611.6"/>
                <iidm:temporaryLimit name="1e793cd6-1608-46af-a3f7-b4d1cabc9d58" acceptableDuration="10" value="3811.6"/>
            </iidm:currentLimits2>
        </iidm:twoWindingsTransformer>
        <iidm:threeWindingsTransformer id="84ed55f4-61f5-4d9d-8755-bba7b877a246" name="BE-TR3_1" r1="0.898462" x1="17.204128" g1="0.0" b1="2.4375E-6" ratedU1="400.0" r2="1.070770247933884" x2="19.6664" g2="0.0" b2="0.0" ratedU2="220.0" r3="4.837006802721088" x3="21.760725623582765" g3="0.0" b3="0.0" ratedU3="21.0" ratedU0="400.0" node1="15" voltageLevelId1="469df5f7-058f-4451-a998-57a48e8a56fe" node2="16" voltageLevelId2="b10b171b-3bc5-4849-bb1f-61ed9ea1ec7c" node3="5" voltageLevelId3="929ba893-c9dc-44d7-b1fd-30834bd3ab85" p1="-121.07971730788884" q1="33.19015668650834" p2="3.7183302542101537" q2="-94.20367519257118" p3="118.00036648327293" q3="65.47047384101032">
            <iidm:alias type="CGMES.TransformerEnd2">e1f661c0-971d-4ce5-ad39-0ec427f288ab</iidm:alias>
            <iidm:alias type="CGMES.TransformerEnd1">5f68a129-d5d8-4b71-9743-9ca2572ba26b</iidm:alias>
            <iidm:alias type="CGMES.Terminal3">ca0f7e2e-3442-4ada-a704-91f319c0ebe3</iidm:alias>
            <iidm:alias type="CGMES.TransformerEnd3">2e21d1ef-2287-434c-a767-1ca807cf2478</iidm:alias>
            <iidm:alias type="CGMES.RatioTapChanger2">fe25f43a-7341-446e-a71a-8ab7119ba806</iidm:alias>
            <iidm:alias type="CGMES.Terminal1">76e9ca77-f805-40ea-8120-5a6d58416d34</iidm:alias>
            <iidm:alias type="CGMES.Terminal2">53fd6693-57e6-482e-8fbe-dcf3531a7ce0</iidm:alias>
            <iidm:property name="v" value="414.07019553707335"/>
            <iidm:property name="angle" value="-20.578915430374792"/>
            <iidm:ratioTapChanger2 lowTapPosition="1" tapPosition="17" targetDeadband="0.5" loadTapChangingCapabilities="true" regulating="false" targetV="0.0">
                <iidm:terminalRef id="84ed55f4-61f5-4d9d-8755-bba7b877a246" side="TWO"/>
                <iidm:step r="0.0" x="0.0" g="0.0" b="0.0" rho="1.1111111111111112"/>
                <iidm:step r="0.0" x="0.0" g="0.0" b="0.0" rho="1.103448275862069"/>
                <iidm:step r="0.0" x="0.0" g="0.0" b="0.0" rho="1.095890410958904"/>
                <iidm:step r="0.0" x="0.0" g="0.0" b="0.0" rho="1.08843537414966"/>
                <iidm:step r="0.0" x="0.0" g="0.0" b="0.0" rho="1.081081081081081"/>
                <iidm:step r="0.0" x="0.0" g="0.0" b="0.0" rho="1.0738255033557047"/>
                <iidm:step r="0.0" x="0.0" g="0.0" b="0.0" rho="1.0666666666666667"/>
                <iidm:step r="0.0" x="0.0" g="0.0" b="0.0" rho="1.0596026490066226"/>
                <iidm:step r="0.0" x="0.0" g="0.0" b="0.0" rho="1.0526315789473684"/>
                <iidm:step r="0.0" x="0.0" g="0.0" b="0.0" rho="1.0457516339869282"/>
                <iidm:step r="0.0" x="0.0" g="0.0" b="0.0" rho="1.0389610389610389"/>
                <iidm:step r="0.0" x="0.0" g="0.0" b="0.0" rho="1.032258064516129"/>
                <iidm:step r="0.0" x="0.0" g="0.0" b="0.0" rho="1.0256410256410258"/>
                <iidm:step r="0.0" x="0.0" g="0.0" b="0.0" rho="1.019108280254777"/>
                <iidm:step r="0.0" x="0.0" g="0.0" b="0.0" rho="1.0126582278481011"/>
                <iidm:step r="0.0" x="0.0" g="0.0" b="0.0" rho="1.0062893081761006"/>
                <iidm:step r="0.0" x="0.0" g="0.0" b="0.0" rho="1.0"/>
                <iidm:step r="0.0" x="0.0" g="0.0" b="0.0" rho="0.9937888198757763"/>
                <iidm:step r="0.0" x="0.0" g="0.0" b="0.0" rho="0.9876543209876544"/>
                <iidm:step r="0.0" x="0.0" g="0.0" b="0.0" rho="0.9815950920245399"/>
                <iidm:step r="0.0" x="0.0" g="0.0" b="0.0" rho="0.9756097560975611"/>
                <iidm:step r="0.0" x="0.0" g="0.0" b="0.0" rho="0.9696969696969697"/>
                <iidm:step r="0.0" x="0.0" g="0.0" b="0.0" rho="0.9638554216867469"/>
                <iidm:step r="0.0" x="0.0" g="0.0" b="0.0" rho="0.9580838323353293"/>
                <iidm:step r="0.0" x="0.0" g="0.0" b="0.0" rho="0.9523809523809523"/>
                <iidm:step r="0.0" x="0.0" g="0.0" b="0.0" rho="0.9467455621301776"/>
                <iidm:step r="0.0" x="0.0" g="0.0" b="0.0" rho="0.9411764705882353"/>
                <iidm:step r="0.0" x="0.0" g="0.0" b="0.0" rho="0.935672514619883"/>
                <iidm:step r="0.0" x="0.0" g="0.0" b="0.0" rho="0.9302325581395349"/>
                <iidm:step r="0.0" x="0.0" g="0.0" b="0.0" rho="0.9248554913294798"/>
                <iidm:step r="0.0" x="0.0" g="0.0" b="0.0" rho="0.9195402298850576"/>
                <iidm:step r="0.0" x="0.0" g="0.0" b="0.0" rho="0.9142857142857143"/>
                <iidm:step r="0.0" x="0.0" g="0.0" b="0.0" rho="0.9090909090909091"/>
            </iidm:ratioTapChanger2>
            <iidm:currentLimits1 permanentLimit="938.2">
                <iidm:temporaryLimit name="ddcb76e0-13ea-413f-9a8f-553d78782f76" acceptableDuration="20" value="968.2"/>
                <iidm:temporaryLimit name="3e9ed732-dd10-4f10-bc9d-d399e1e75a78" acceptableDuration="10" value="998.2"/>
            </iidm:currentLimits1>
            <iidm:currentLimits2 permanentLimit="1705.8">
                <iidm:temporaryLimit name="52d7ccc6-b4a1-48eb-9cfa-f5870b8b7fce" acceptableDuration="20" value="1805.8"/>
                <iidm:temporaryLimit name="11763596-6f4b-4cd5-a4a0-be649f368e86" acceptableDuration="10" value="1905.8"/>
            </iidm:currentLimits2>
            <iidm:currentLimits3 permanentLimit="17870.4">
                <iidm:temporaryLimit name="50448009-0fad-4656-bce4-438fe76e18cf" acceptableDuration="20" value="18870.4"/>
                <iidm:temporaryLimit name="df2d3155-4436-4542-8d3b-64241c7433be" acceptableDuration="10" value="19870.4"/>
            </iidm:currentLimits3>
        </iidm:threeWindingsTransformer>
    </iidm:substation>
    <iidm:substation id="c49942d6-8b01-4b01-b5e8-f1180f84906c" name="PP_Amsterdam" country="NL" geographicalTags="TENNET TSO B.V.">
        <iidm:property name="CGMES.regionName" value="NL"/>
        <iidm:property name="CGMES.subRegionId" value="c1d5bfe48f8011e08e4d00247eb1f55e"/>
        <iidm:property name="CGMES.regionId" value="c1d5bfe28f8011e08e4d00247eb1f55e"/>
        <iidm:voltageLevel id="2a37dc57-2faf-464a-8175-bc415f9a635f" name="15.8" nominalV="15.75" lowVoltageLimit="14.175" highVoltageLimit="17.325" topologyKind="NODE_BREAKER">
            <iidm:alias type="MergedVoltageLevel1">8d8a82ba-b5b0-4e94-861a-192af055f2b8</iidm:alias>
            <iidm:nodeBreakerTopology>
                <iidm:busbarSection id="53da4025-9d51-4eaf-b0d2-ce27fbe740d2" name="NL-Busbar_3" node="4">
                    <iidm:alias type="CGMES.Terminal1">0f199d49-0093-4b51-b357-70371424d174</iidm:alias>
                </iidm:busbarSection>
                <iidm:busbarSection id="e6d49e32-b634-4b86-a8ca-15159f1497b5" name="NL-Busbar_5" node="5">
                    <iidm:alias type="CGMES.Terminal1">42800bad-5e47-42e6-b9b0-1fb8fc5831aa</iidm:alias>
                </iidm:busbarSection>
                <iidm:switch id="1ea8f512-451c-40d3-a312-7c4e71d9dbcb" name="NL_BREAKER_1" kind="BREAKER" retained="false" open="false" node1="9" node2="10">
                    <iidm:alias type="CGMES.Terminal2">28797d21-df04-4be6-806b-3be26b040d6a</iidm:alias>
                    <iidm:alias type="CGMES.Terminal1">e19e01f7-eb9b-4ce5-a6fe-4bb4ef0ce6c3</iidm:alias>
                </iidm:switch>
                <iidm:switch id="0c2fa351-239d-463b-a826-0b8615bf6c3c" name="NL_BREAKER_4" kind="BREAKER" retained="false" open="false" node1="11" node2="12">
                    <iidm:alias type="CGMES.Terminal1">7fae7c9d-952f-4321-830d-aa667d21969d</iidm:alias>
                    <iidm:alias type="CGMES.Terminal2">3179d96c-7ecd-4f8a-b3f0-f24b62a16e87</iidm:alias>
                </iidm:switch>
                <iidm:switch id="9f984b04-1736-43d2-9122-3a17fc8aea5f_SW_fict" name="busbarcoupler 1 - T1" fictitious="true" kind="BREAKER" retained="false" open="true" node1="13" node2="2">
                    <iidm:property name="CGMES.isCreatedForDisconnectedTerminal" value="true"/>
                </iidm:switch>
                <iidm:switch id="f04ec73d-b94a-4b7e-a3d6-b1234fc37385_SW_fict" name="busbarcoupler 1 - T2" fictitious="true" kind="BREAKER" retained="false" open="true" node1="14" node2="1">
                    <iidm:property name="CGMES.isCreatedForDisconnectedTerminal" value="true"/>
                </iidm:switch>
                <iidm:switch id="5a094c9f-0af5-48dc-94e9-89c6c220023c" name="busbarcoupler 1" kind="BREAKER" retained="false" open="true" node1="13" node2="14">
                    <iidm:alias type="CGMES.Terminal1">9f984b04-1736-43d2-9122-3a17fc8aea5f</iidm:alias>
                    <iidm:alias type="CGMES.Terminal2">f04ec73d-b94a-4b7e-a3d6-b1234fc37385</iidm:alias>
                </iidm:switch>
                <iidm:internalConnection node1="4" node2="1"/>
                <iidm:internalConnection node1="5" node2="2"/>
                <iidm:internalConnection node1="6" node2="2"/>
                <iidm:internalConnection node1="7" node2="1"/>
                <iidm:internalConnection node1="8" node2="1"/>
                <iidm:internalConnection node1="9" node2="3"/>
                <iidm:internalConnection node1="10" node2="2"/>
                <iidm:internalConnection node1="11" node2="0"/>
                <iidm:internalConnection node1="12" node2="1"/>
                <iidm:internalConnection node1="15" node2="0"/>
                <iidm:internalConnection node1="16" node2="3"/>
                <iidm:bus v="16.01775" angle="-1.8057008215396575" nodes="0,1,4,7,8,11,12,15"/>
                <iidm:bus v="16.0335" angle="0.0" nodes="2,3,5,6,9,10,16"/>
            </iidm:nodeBreakerTopology>
            <iidm:generator id="9c3b8f97-7972-477d-9dc8-87365cc0ad0e" name="NL-G1" energySource="OTHER" minP="300.0" maxP="1000.0" ratedS="1100.0" voltageRegulatorOn="true" targetP="600.492701" targetV="16.0335" targetQ="386.922556" node="6" p="-600.492701" q="-207.40168422883823">
                <iidm:alias type="CGMES.Terminal1">faab7959-f9bf-421b-bc3f-d364e0c1388b</iidm:alias>
                <iidm:property name="CGMES.normalPF" value="1.0"/>
                <iidm:property name="CGMES.GeneratingUnit" value="049438a6-780a-44fe-a788-ebe385d98e25"/>
                <iidm:property name="CGMES.RegulatingControl" value="04f338d3-3c0d-433f-a77b-e36dd256f0f0"/>
                <iidm:minMaxReactiveLimits minQ="0.0" maxQ="600.0"/>
            </iidm:generator>
            <iidm:generator id="2844585c-0d35-488d-a449-685bcd57afbf" name="NL-G2" energySource="OTHER" minP="130.0" maxP="250.0" ratedS="250.0" voltageRegulatorOn="true" targetP="140.0" targetV="16.01775" targetQ="77.743" node="7" p="-140.0" q="-6.212545138176492">
                <iidm:alias type="CGMES.Terminal1">ae4b7cbe-349a-41c8-ace2-25ec26f14a64</iidm:alias>
                <iidm:property name="CGMES.normalPF" value="0.0"/>
                <iidm:property name="CGMES.GeneratingUnit" value="ca80ee09-3bed-4884-bc28-6dc89d067289"/>
                <iidm:property name="CGMES.RegulatingControl" value="1b3c88f9-c2ca-4250-bd37-ae0efa2fb022"/>
                <iidm:minMaxReactiveLimits minQ="0.0" maxQ="200.0"/>
            </iidm:generator>
            <iidm:generator id="1dc9afba-23b5-41a0-8540-b479ed8baf4b" name="NL-G3" energySource="OTHER" minP="130.0" maxP="250.0" ratedS="250.0" voltageRegulatorOn="true" targetP="150.0" targetV="16.01775" targetQ="83.296" node="8" p="-150.0" q="-6.212545138176492">
                <iidm:alias type="CGMES.Terminal1">f04ecab5-1a12-4cc0-ba56-b157ebf11a42</iidm:alias>
                <iidm:property name="CGMES.normalPF" value="0.0"/>
                <iidm:property name="CGMES.GeneratingUnit" value="b850063d-eae7-4675-bc98-4642d3076783"/>
                <iidm:property name="CGMES.RegulatingControl" value="53e7a6c7-759b-4da2-898a-1c061d788670"/>
                <iidm:minMaxReactiveLimits minQ="0.0" maxQ="200.0"/>
            </iidm:generator>
        </iidm:voltageLevel>
        <iidm:voltageLevel id="c1d5bfea8f8011e08e4d00247eb1f55e" name="220.0" nominalV="220.0" lowVoltageLimit="198.0" highVoltageLimit="242.0" topologyKind="NODE_BREAKER">
            <iidm:nodeBreakerTopology>
                <iidm:busbarSection id="12733133-1f34-44f3-a020-f5b33cede919" name="N1230822396" node="6">
                    <iidm:alias type="CGMES.Terminal1">ecea10ff-e006-436b-a86a-beac4c2a30c1</iidm:alias>
                </iidm:busbarSection>
                <iidm:busbarSection id="143aa0b1-2cd4-4e58-98d4-b0438bd5a39a" name="NL-Busbar_2" node="7">
                    <iidm:alias type="CGMES.Terminal1">50f00b94-fe0f-48fd-887e-f0d4d59eee87</iidm:alias>
                </iidm:busbarSection>
                <iidm:switch id="5f5d40ae-d52d-4631-9285-b3ceefff784c" name="B1" kind="BREAKER" retained="true" open="false" node1="9" node2="10">
                    <iidm:alias type="CGMES.Terminal2">5f40c3f7-9540-4e1b-aa97-6553d5524877</iidm:alias>
                    <iidm:alias type="CGMES.Terminal1">8121d4c3-9cb2-47db-b40a-99678602bb2a</iidm:alias>
                </iidm:switch>
                <iidm:switch id="88a19e5c-6885-4e6e-8d30-c5442444b309" name="CIRCB-1230992240" kind="BREAKER" retained="false" open="false" node1="11" node2="12">
                    <iidm:alias type="CGMES.Terminal2">abc40269-5f9a-4b13-a5a5-8e3b3929eff5</iidm:alias>
                    <iidm:alias type="CGMES.Terminal1">c9dbf281-e788-4084-b268-3b5a9473ad72</iidm:alias>
                </iidm:switch>
                <iidm:switch id="21ec578c-689f-4130-80de-fd0fb5a30ed8" name="CIRCB-1230992249" kind="BREAKER" retained="false" open="false" node1="13" node2="14">
                    <iidm:alias type="CGMES.Terminal1">14f212ae-bcd8-46ae-9366-11dec9602a01</iidm:alias>
                    <iidm:alias type="CGMES.Terminal2">3c377e5e-65cc-45f1-ba12-e20034df7cb3</iidm:alias>
                </iidm:switch>
                <iidm:switch id="3da8f227-5c16-47e1-a17f-4cd92269d301" name="NL_BREAKER_1" kind="BREAKER" retained="false" open="false" node1="15" node2="16">
                    <iidm:alias type="CGMES.Terminal1">9fc1ca1a-bb62-4982-9358-fa9b4ac5564d</iidm:alias>
                    <iidm:alias type="CGMES.Terminal2">eedefa27-de13-4e6f-91a3-42aa86b539d6</iidm:alias>
                </iidm:switch>
                <iidm:switch id="4853e915-48e5-4527-a4db-cce11ab18f73" name="NL_BREAKER_3" kind="BREAKER" retained="false" open="false" node1="17" node2="18">
                    <iidm:alias type="CGMES.Terminal1">74039a16-da9d-46dd-a4f1-dd65fbb09ec4</iidm:alias>
                    <iidm:alias type="CGMES.Terminal2">e12338f8-6e9e-4d06-a29a-e12bdd7bd4d7</iidm:alias>
                </iidm:switch>
                <iidm:internalConnection node1="6" node2="0"/>
                <iidm:internalConnection node1="7" node2="3"/>
                <iidm:internalConnection node1="8" node2="3"/>
                <iidm:internalConnection node1="9" node2="4"/>
                <iidm:internalConnection node1="10" node2="3"/>
                <iidm:internalConnection node1="11" node2="1"/>
                <iidm:internalConnection node1="12" node2="4"/>
                <iidm:internalConnection node1="13" node2="2"/>
                <iidm:internalConnection node1="14" node2="4"/>
                <iidm:internalConnection node1="15" node2="3"/>
                <iidm:internalConnection node1="16" node2="5"/>
                <iidm:internalConnection node1="17" node2="4"/>
                <iidm:internalConnection node1="18" node2="0"/>
                <iidm:internalConnection node1="19" node2="0"/>
                <iidm:internalConnection node1="20" node2="3"/>
                <iidm:internalConnection node1="21" node2="5"/>
                <iidm:internalConnection node1="22" node2="2"/>
                <iidm:internalConnection node1="23" node2="1"/>
                <iidm:bus v="224.57743845188048" angle="-3.587109148905245" nodes="0,1,2,3,4,5,6,7,8,9,10,11,12,13,14,15,16,17,18,19,20,21,22,23"/>
            </iidm:nodeBreakerTopology>
            <iidm:load id="b1e03a8f-6a11-4454-af58-4a4a680e857f" name="NL-Load_3" loadType="UNDEFINED" p0="486.0" q0="230.0" node="8" p="486.00000000000006" q="230.0">
                <iidm:alias type="CGMES.Terminal1">fab54e9c-b12e-4e47-a9f2-fec4ef96c0c0</iidm:alias>
            </iidm:load>
        </iidm:voltageLevel>
        <iidm:voltageLevel id="c1d5bfde8f8011e08e4d00247eb1f55e" name="400.0" nominalV="400.0" lowVoltageLimit="360.0" highVoltageLimit="440.0" topologyKind="NODE_BREAKER">
            <iidm:nodeBreakerTopology>
                <iidm:switch id="b5a26150-429d-4acb-b45b-055e42c79055" name="CIRCB-1230992174" kind="BREAKER" retained="false" open="false" node1="7" node2="8">
                    <iidm:alias type="CGMES.Terminal1">41b735f7-da62-4bd3-ac98-fbdec24baeac</iidm:alias>
                    <iidm:alias type="CGMES.Terminal2">85ceec9c-21a9-4ef2-b7b0-c2bb9552e799</iidm:alias>
                </iidm:switch>
                <iidm:switch id="b1fc12ae-ba9f-42ee-9558-3d432cc58fbf" name="CIRCB-1230992183" kind="BREAKER" retained="false" open="false" node1="9" node2="10">
                    <iidm:alias type="CGMES.Terminal1">790df530-60c7-40bc-be5f-f90e9c65bab4</iidm:alias>
                    <iidm:alias type="CGMES.Terminal2">7a7fd92b-1aaf-49de-b609-1d640e63d49f</iidm:alias>
                </iidm:switch>
                <iidm:switch id="bac0aa59-1318-4032-b192-15a8d49283ee" name="CIRCB-1230992192" kind="BREAKER" retained="false" open="false" node1="11" node2="12">
                    <iidm:alias type="CGMES.Terminal1">30aa2972-aafb-4c38-912d-a14867d47cec</iidm:alias>
                    <iidm:alias type="CGMES.Terminal2">f937c4ac-b9fc-44a2-82a0-99cb34c89974</iidm:alias>
                </iidm:switch>
                <iidm:internalConnection node1="4" node2="3"/>
                <iidm:internalConnection node1="5" node2="3"/>
                <iidm:internalConnection node1="6" node2="3"/>
                <iidm:internalConnection node1="7" node2="0"/>
                <iidm:internalConnection node1="8" node2="3"/>
                <iidm:internalConnection node1="9" node2="1"/>
                <iidm:internalConnection node1="10" node2="3"/>
                <iidm:internalConnection node1="11" node2="2"/>
                <iidm:internalConnection node1="12" node2="3"/>
                <iidm:internalConnection node1="13" node2="3"/>
                <iidm:internalConnection node1="14" node2="0"/>
                <iidm:internalConnection node1="15" node2="2"/>
                <iidm:internalConnection node1="16" node2="1"/>
                <iidm:bus v="411.45646659366815" angle="-21.139213489943053" nodes="0,1,2,3,4,5,6,7,8,9,10,11,12,13,14,15,16"/>
            </iidm:nodeBreakerTopology>
            <iidm:load id="69add5b4-70bd-4360-8a93-286256c0d38b" name="NL-Load_1" loadType="UNDEFINED" p0="90.0" q0="280.0" node="4" p="90.0" q="280.0">
                <iidm:alias type="CGMES.Terminal1">f461fd2d-1e41-4a3e-8213-7cc33c77a089</iidm:alias>
            </iidm:load>
            <iidm:load id="25ab1b5b-6803-47e2-805a-ab7b2072e034" name="NL-Load_2" loadType="UNDEFINED" p0="10.0" q0="10.0" node="5" p="10.0" q="10.0">
                <iidm:alias type="CGMES.Terminal1">6dad1a97-6874-4206-a5a5-837e495325f8</iidm:alias>
            </iidm:load>
            <iidm:shunt id="fbfed7e3-3dec-4829-a286-029e73535685" name="NL-S1" sectionCount="1" voltageRegulatorOn="false" targetV="400.0" targetDeadband="0.5" node="6" p="0.0" q="-52.989780681246614">
                <iidm:alias type="CGMES.Terminal1">a015f692-3fc5-4ec3-8d1d-977c7b499e7c</iidm:alias>
                <iidm:property name="CGMES.RegulatingControl" value="613dfeb3-0161-4cec-aaa9-ccddd885771b"/>
                <iidm:shuntLinearModel bPerSection="3.13E-4" gPerSection="0.0" maximumSectionCount="1"/>
            </iidm:shunt>
        </iidm:voltageLevel>
        <iidm:twoWindingsTransformer id="2184f365-8cd5-4b5d-8a28-9d68603bb6a4" name="NL_TR2_2" r="3.543757321797521E-4" x="0.0275602203990186" g="0.003547489523809523" b="-0.027710349931972786" ratedU1="220.0" ratedU2="15.75" node1="19" voltageLevelId1="c1d5bfea8f8011e08e4d00247eb1f55e" node2="15" voltageLevelId2="2a37dc57-2faf-464a-8175-bc415f9a635f" p1="-288.97584901004717" q1="3.71724599325133" p2="290.0001221193833" q2="12.425090276352984">
            <iidm:alias type="CGMES.Terminal1">1128e664-0653-448a-9068-e37f1a097c05</iidm:alias>
            <iidm:alias type="CGMES.Terminal2">da232169-1c36-495a-8af6-a0d7d2b39f52</iidm:alias>
            <iidm:alias type="CGMES.TransformerEnd1">0dbed103-fc51-4df4-a6fa-0dee4c57f3a3</iidm:alias>
            <iidm:alias type="CGMES.TransformerEnd2">41ca9e70-1cb4-4971-b8e6-a97a15580b89</iidm:alias>
            <iidm:alias type="CGMES.PhaseTapChanger1">ee649b97-d2ec-47e1-976f-0f4d9f50fa11</iidm:alias>
            <iidm:phaseTapChanger lowTapPosition="0" tapPosition="17" targetDeadband="0.5" regulationMode="ACTIVE_POWER_CONTROL" regulationValue="0.0" regulating="false">
                <iidm:terminalRef id="2184f365-8cd5-4b5d-8a28-9d68603bb6a4" side="TWO"/>
                <iidm:step r="0.0" x="0.0" g="0.0" b="0.0" rho="1.086941162787917" alpha="0.086951"/>
                <iidm:step r="0.0" x="0.0" g="0.0" b="0.0" rho="1.081067056427376" alpha="0.081076"/>
                <iidm:step r="0.0" x="0.0" g="0.0" b="0.0" rho="1.0752560991214082" alpha="0.075264"/>
                <iidm:step r="0.0" x="0.0" g="0.0" b="0.0" rho="1.0695061341524323" alpha="0.069514"/>
                <iidm:step r="0.0" x="0.0" g="0.0" b="0.0" rho="1.0638184700162765" alpha="0.063826"/>
...